@<TRIPOS>MOLECULE
AMP
   17    16     1     0     0
SMALL
resp


@<TRIPOS>ATOM
      1 C1          3.5370    1.4230   -0.0000 c         1 AMP      0.652001
      2 O1          4.0460    2.2070   -0.8160 o         1 AMP     -0.551103
      3 C2          3.9330   -0.0570    0.0630 c3        1 AMP      0.072289
      4 C3          2.7900   -0.9240   -0.5080 c3        1 AMP     -0.249885
      5 N1          1.5760   -0.9570    0.2990 n         1 AMP     -0.437043
      6 H3          1.4640   -1.7340    0.9400 hn        1 AMP      0.295787
      7 H1          3.1620   -1.9520   -0.6130 h1        1 AMP      0.157049
      8 H2          2.5110   -0.5550   -1.5000 h1        1 AMP      0.157049
      9 C5          4.2900   -0.4920    1.4860 c3        1 AMP     -0.137179
     10 H7          4.6900   -1.5110    1.4760 hc        1 AMP      0.039360
     11 H8          3.4210   -0.4640    2.1500 hc        1 AMP      0.039360
     12 H9          5.0560    0.1610    1.9070 hc        1 AMP      0.039360
     13 C4          5.1360   -0.2610   -0.8690 c3        1 AMP     -0.249885
     14 H4          5.4500   -1.3080   -0.8370 h1        1 AMP      0.157049
     15 H5          4.8500   -0.0050   -1.8950 h1        1 AMP      0.157049
     16 N2          6.2840    0.5340   -0.4950 n         1 AMP     -0.437043
     17 H6          6.2160    1.5270   -0.6760 hn        1 AMP      0.295787
@<TRIPOS>BOND
     1    2    1 2   
     2    3    1 1   
     3    4    3 1   
     4    5    4 1   
     5    6    5 1   
     6    7    4 1   
     7    8    4 1   
     8    9    3 1   
     9   10    9 1   
    10   11    9 1   
    11   12    9 1   
    12   13    3 1   
    13   14   13 1   
    14   15   13 1   
    15   16   13 1   
    16   17   16 1   
@<TRIPOS>SUBSTRUCTURE
     1 AMP         1 TEMP              0 ****  ****    0 ROOT
