@<TRIPOS>MOLECULE
EDH
   10     9     1     0     0
SMALL
resp


@<TRIPOS>ATOM
      1 N1         -1.8070   -0.4010    0.0000 n         1 EDH      -0.491788
      2 H1         -1.7040   -1.4080    0.0000 hn        1 EDH       0.316961
      3 C1         -0.6220    0.4360    0.0000 c3        1 EDH      -0.068628
      4 H2         -0.6340    1.0870   -0.8820 h1        1 EDH       0.121728
      5 H3         -0.6340    1.0870    0.8830 h1        1 EDH       0.121728
      6 C2          0.6220   -0.4360    0.0000 c3        1 EDH      -0.068628
      7 H4          0.6340   -1.0870   -0.8820 h1        1 EDH       0.121728
      8 H5          0.6340   -1.0870    0.8820 h1        1 EDH       0.121728
      9 N2          1.8070    0.4010    0.0000 n         1 EDH      -0.491788
     10 H6          1.7040    1.4080    0.0000 hn        1 EDH       0.316961
@<TRIPOS>BOND
     1    1    2 1   
     2    1    3 1   
     3    3    4 1   
     4    3    5 1   
     5    3    6 1   
     6    6    7 1   
     7    6    8 1   
     8    6    9 1   
     9    9   10 1   
@<TRIPOS>SUBSTRUCTURE
     1 EDH         1 TEMP              0 ****  ****    0 ROOT
